powerflow/test/test_UG.glm
// $Id$
//
// Powerflow module self-test

#set include="../../core"
#include "../../core/rt/msvc_debugger.glm"

#include "assert.glm"

clock {
	timezone EST+5EDT;
	starttime '2000-01-01 00:00:00 EST';
}

module powerflow;

///////////////////////////////////////////////////////
// test 2: underground line 

///////////////////////////////////////////////////////
// ABCN phase
object underground_line {
	phases ABCN;
	length 5280 ft;
	configuration object line_configuration {
		conductor_A object underground_line_conductor {
			conductor_diameter 0.567;
			conductor_gmr 0.0171;
			conductor_resistance 0.41;
			outer_diameter 1.29;
			neutral_gmr 0.00208;
			neutral_diameter 0.0641;
			neutral_resistance 14.8722;
			neutral_strands 13;
		};
		conductor_B object underground_line_conductor {
			conductor_diameter 0.567;
			conductor_gmr 0.0171;
			conductor_resistance 0.41;
			outer_diameter 1.29;
			neutral_gmr 0.00208;
			neutral_diameter 0.0641;
			neutral_resistance 14.8722;
			neutral_strands 13;
		};
		conductor_C object underground_line_conductor {
			conductor_diameter 0.567;
			conductor_gmr 0.0171;
			conductor_resistance 0.41;
			outer_diameter 1.29;
			neutral_gmr 0.00208;
			neutral_diameter 0.0641;
			neutral_resistance 14.8722;
			neutral_strands 13;
		};
		conductor_N object underground_line_conductor {
			conductor_diameter 0.567;
			conductor_gmr 0.0171;
			conductor_resistance 0.41;
			outer_diameter 1.29;
			neutral_gmr 0.00208;
			neutral_diameter 0.0641;
			neutral_resistance 14.8722;
			neutral_strands 13;
		};
		spacing object line_spacing {
			distance_AB 0.5 ft;
			distance_BC 0.5 ft;
			distance_AC 1 ft;
			distance_AN 0 ft;
			distance_BN 0 ft;
			distance_CN 0 ft;			
		};
	};
	from object node {
		name UG_fABC;
		phases ABCN;
		voltage_A 7200 + 0j;		
		voltage_B -3600 - 6235.4j;
		voltage_C -3600 + 6235.4j;		
	};
	to object load {
		name UG_tABC;
		phases ABCN;
		voltage_A 7200 + 0j;		
		voltage_B -3600 - 6235.4j;
		voltage_C -3600 + 6235.4j;
		constant_current_A  1;
		constant_power_A 1000+2000j;	
		constant_impedance_A 1500 + 750j;
		constant_current_B  -0.5-0.866j;
		constant_power_B 1000+2000j;	
		constant_impedance_B 1500 + 750j;
		constant_current_C  -0.5+0.866j;
		constant_power_C 1000+2000j;	
		constant_impedance_C 1500 + 750j;
	};
	object complex_assert {
		target "power_out";
		value 107.457+47.4307j;
		within 0.01;
	};	
};

